Version 4
SHEET 1 1200 708
WIRE -80 -224 -144 -224
WIRE -16 -224 -80 -224
WIRE 48 -224 -16 -224
WIRE 112 -224 48 -224
WIRE 176 -224 112 -224
WIRE -80 -176 -80 -224
WIRE -16 -176 -16 -224
WIRE -80 -80 -80 -112
WIRE -80 -80 -256 -80
WIRE -16 -80 -80 -80
WIRE 688 -64 480 -64
WIRE 416 -16 368 -16
WIRE -16 16 -16 0
WIRE 288 16 -16 16
WIRE 368 48 368 -16
WIRE 576 48 576 0
WIRE 576 48 544 48
WIRE 608 48 576 48
WIRE -208 64 -208 16
WIRE -144 64 -144 -224
WIRE -80 64 -80 -80
WIRE -16 64 -16 16
WIRE 48 64 48 -224
WIRE 112 64 112 -224
WIRE 176 64 176 -224
WIRE 416 96 416 -16
WIRE 480 96 480 -64
WIRE 544 96 544 48
WIRE 608 96 608 48
WIRE -464 112 -464 64
WIRE -384 112 -464 112
WIRE -464 176 -464 112
WIRE -384 176 -384 112
WIRE 688 192 688 -64
WIRE 816 192 688 192
WIRE 832 192 816 192
WIRE 816 224 816 192
WIRE -464 304 -464 256
WIRE -384 304 -384 240
WIRE -384 304 -464 304
WIRE 816 320 816 288
WIRE 544 336 544 320
WIRE 544 336 528 336
WIRE 576 336 544 336
WIRE 608 336 608 320
WIRE 656 336 608 336
WIRE 688 336 688 192
WIRE 688 336 656 336
WIRE 736 336 688 336
WIRE -464 352 -464 304
WIRE 480 352 480 320
WIRE 528 352 528 336
WIRE 576 352 576 336
WIRE 656 352 656 336
WIRE 736 352 736 336
WIRE -80 368 -80 352
WIRE 48 368 48 352
WIRE 48 368 -80 368
WIRE -80 384 -80 368
WIRE -208 416 -208 352
WIRE 176 416 176 352
WIRE 480 448 480 416
WIRE 528 448 528 416
WIRE 528 448 480 448
WIRE 576 448 576 432
WIRE 576 448 528 448
WIRE 656 448 656 432
WIRE 656 448 576 448
WIRE 736 448 736 416
WIRE 736 448 656 448
WIRE 816 448 816 400
WIRE 816 448 736 448
WIRE 112 464 112 352
WIRE 288 464 288 16
WIRE 288 464 112 464
WIRE 480 480 480 448
WIRE -16 528 -16 352
WIRE 160 528 -16 528
WIRE 256 528 240 528
WIRE 320 528 256 528
WIRE 416 528 416 320
WIRE 416 528 384 528
WIRE -144 544 -144 352
WIRE -80 544 -144 544
WIRE 256 544 256 528
WIRE 384 544 384 528
WIRE -144 560 -144 544
WIRE 256 624 256 608
WIRE -144 656 -144 624
FLAG -464 352 0
FLAG -464 64 Vcc
FLAG -208 16 Vcc
FLAG 176 416 0
FLAG -208 416 0
FLAG -144 656 0
FLAG -16 -176 0
FLAG 256 624 0
FLAG 384 624 0
FLAG 480 480 0
FLAG 576 0 Vcc
FLAG 368 48 0
FLAG 832 192 Vout
FLAG -256 -80 ANT
SYMBOL Misc\\DIP14 -112 208 R270
WINDOW 0 22 -163 Center 0
WINDOW 3 -70 95 Center 0
SYMATTR InstName U1
SYMATTR Value CD4093
SYMBOL Misc\\DIP8 512 208 R270
WINDOW 3 -51 -3 Center 0
SYMATTR InstName U2
SYMATTR Value LM2917
SYMBOL voltage -464 160 R0
WINDOW 123 0 0 Left 0
WINDOW 39 0 0 Left 0
SYMATTR InstName V1
SYMATTR Value 9
SYMBOL cap -400 176 R0
SYMATTR InstName C1
SYMATTR Value 1µ
SYMBOL res -96 368 R0
SYMATTR InstName R1
SYMATTR Value 10k
SYMBOL res -96 448 R0
SYMATTR InstName R2
SYMATTR Value 10k
SYMBOL res -32 -96 R0
SYMATTR InstName R3
SYMATTR Value 15k
SYMBOL cap -160 560 R0
SYMATTR InstName C2
SYMATTR Value 100p
SYMBOL cap -96 -176 R0
SYMATTR InstName C3
SYMATTR Value 100p
SYMBOL cap 240 544 R0
SYMATTR InstName C5
SYMATTR Value 10n
SYMBOL res 256 512 R90
WINDOW 0 0 56 VBottom 0
WINDOW 3 32 56 VTop 0
SYMATTR InstName R4
SYMATTR Value 1k
SYMBOL cap 384 512 R90
WINDOW 0 0 32 VBottom 0
WINDOW 3 32 32 VTop 0
SYMATTR InstName C6
SYMATTR Value 1µ
SYMBOL res 368 528 R0
SYMATTR InstName R5
SYMATTR Value 4.7k
SYMBOL cap 464 352 R0
SYMATTR InstName C7
SYMATTR Value 1n
SYMBOL cap 512 352 R0
SYMATTR InstName C8
SYMATTR Value 22n
SYMBOL res 560 336 R0
SYMATTR InstName R6
SYMATTR Value 47k
SYMBOL res 640 336 R0
SYMATTR InstName R7
SYMATTR Value 20k
SYMBOL cap 720 352 R0
SYMATTR InstName C4
SYMATTR Value 470n
SYMBOL LED 800 224 R0
SYMATTR InstName D1
SYMBOL res 800 304 R0
SYMATTR InstName R8
SYMATTR Value 100
